1
2
.dc I1 0 50m 1m{return}{return}
1
1
/VOUT
V
