*load regulation
.include AE01005024_01.cir
.param VSOURCE=5
.param ILOAD=0.05
.dc I1 0 {ILOAD} 0.001
.backanno
.op

